/*--------------------------------*- C++ -*----------------------------------*\
  =========                 |
  \\      /  F ield         | OpenFOAM: The Open Source CFD Toolbox
   \\    /   O peration     | Website:  https://openfoam.org
    \\  /    A nd           | Version:  13
     \\/     M anipulation  |
\*---------------------------------------------------------------------------*/
FoamFile
{
    format      ascii;
    class       dictionary;
    location    "constant";
    object      physicalProperties;
}
// * * * * * * * * * * * * * * * * * * * * * * * * * * * * * * * * * * * * * //

Coriolis Coriolis [0 0 -1 0 0] (0 0 4.9776143e-5);
Ugeo     Ugeo     [0 1 -1 0 0] (-5.2646184 1.372769 0);

thermoType
{
    type            heRhoThermo;
    mixture         pureMixture;
    transport       const;
    thermo          hConst;
    equationOfState rhoConst;
    specie          specie;
    energy          sensibleInternalEnergy;
}

mixture
{
    specie
    {
        molWeight       28.9;
    }
    equationOfState
    {
        rho            1;
    }
    thermodynamics
    {
        Cp              1003.5;
        Hf              0;
    }
    transport
    {
        mu              1.8e-05;
        Pr              0.7;
    }
}

// ************************************************************************* //
